[TITLE]
;;Project Title/Notes

[OPTIONS]
;;Option             Value
FLOW_UNITS           CMS
INFILTRATION         HORTON
FLOW_ROUTING         DYNWAVE
LINK_OFFSETS         ELEVATION
MIN_SLOPE            0
ALLOW_PONDING        YES
SKIP_STEADY_STATE    NO

START_DATE           01/02/2011
START_TIME           00:00:00
REPORT_START_DATE    01/02/2011
REPORT_START_TIME    00:00:00
END_DATE             01/02/2011
END_TIME             06:00:00
SWEEP_START          01/01
SWEEP_END            12/31
DRY_DAYS             0
REPORT_STEP          00:15:00
WET_STEP             00:05:00
DRY_STEP             01:00:00
ROUTING_STEP         0:01:00 

INERTIAL_DAMPING     PARTIAL
NORMAL_FLOW_LIMITED  BOTH
FORCE_MAIN_EQUATION  D-W
VARIABLE_STEP        0.75
LENGTHENING_STEP     0
MIN_SURFAREA         1.14
MAX_TRIALS           8
HEAD_TOLERANCE       0.0015
SYS_FLOW_TOL         5
LAT_FLOW_TOL         5
MINIMUM_STEP         5
THREADS              1

[FILES]
;;Interfacing Files
USE HOTSTART "hotstart.hsf"

[EVAPORATION]
;;Data Source    Parameters
;;-------------- ----------------
CONSTANT         0.000
DRY_ONLY         NO

[RAINGAGES]
;;Name           Format    Interval SCF      Source    
;;-------------- --------- ------ ------ ----------
1                INTENSITY 0:15     1.000    TIMESERIES rain            

[SUBCATCHMENTS]
;;Name           Rain Gage        Outlet           Area     %Imperv  Width    %Slope   CurbLen  SnowPack        
;;-------------- ---------------- ---------------- -------- -------- -------- -------- -------- ----------------
2707             1                Node_02706       0.1      25       500      0.5      0                        
2708             1                Node_02707       0.1      25       500      0.5      0                        
2709             1                Node_02708       0.1      25       500      0.5      0                        
2710             1                Node_02709       0.1      25       500      0.5      0                        
2712             1                Node_02711       0.1      25       500      0.5      0                        
2713             1                Node_02712       0.1      25       500      0.5      0                        
2714             1                Node_02713       0.1      25       500      0.5      0                        
2715             1                Node_02714       0.1      25       500      0.5      0                        
2716             1                Node_02715       0.1      25       500      0.5      0                        
2717             1                Node_02716       0.1      25       500      0.5      0                        
2718             1                Node_02717       0.1      25       500      0.5      0                        
2719             1                Node_02718       0.1      25       500      0.5      0                        
2721             1                Node_02720       0.1      25       500      0.5      0                        
2722             1                Node_02721       0.1      25       500      0.5      0                        
2723             1                Node_02722       0.1      25       500      0.5      0                        
2724             1                Node_02723       0.1      25       500      0.5      0                        
2725             1                Node_02724       0.1      25       500      0.5      0                        
2726             1                Node_02725       0.1      25       500      0.5      0                        
2727             1                Node_02726       0.1      25       500      0.5      0                        
2728             1                Node_02727       0.1      25       500      0.5      0                        
2729             1                Node_02728       0.1      25       500      0.5      0                        
2730             1                Node_02729       0.1      25       500      0.5      0                        
2731             1                Node_02730       0.1      25       500      0.5      0                        
2732             1                Node_02731       0.1      25       500      0.5      0                        
2733             1                Node_02732       0.1      25       500      0.5      0                        
2734             1                Node_02733       0.1      25       500      0.5      0                        
2735             1                Node_02734       0.1      25       500      0.5      0                        
2736             1                Node_02735       0.1      25       500      0.5      0                        
2737             1                Node_02736       0.1      25       500      0.5      0                        
2738             1                Node_02737       0.1      25       500      0.5      0                        
2739             1                Node_02738       0.1      25       500      0.5      0                        
2740             1                Node_02739       0.1      25       500      0.5      0                        
2741             1                Node_02740       0.1      25       500      0.5      0                        
2742             1                Node_02741       0.1      25       500      0.5      0                        
2743             1                Node_02742       0.1      25       500      0.5      0                        
2744             1                Node_02743       0.1      25       500      0.5      0                        
2745             1                Node_02744       0.1      25       500      0.5      0                        
2746             1                Node_02745       0.1      25       500      0.5      0                        
2747             1                Node_02746       0.1      25       500      0.5      0                        
2748             1                Node_02747       0.1      25       500      0.5      0                        
2749             1                Node_02748       0.1      25       500      0.5      0                        
2750             1                Node_02749       0.1      25       500      0.5      0                        
2751             1                Node_02750       0.1      25       500      0.5      0                        
2752             1                Node_02751       0.1      25       500      0.5      0                        
2753             1                Node_02752       0.1      25       500      0.5      0                        
2754             1                Node_02753       0.1      25       500      0.5      0                        
2755             1                Node_02754       0.1      25       500      0.5      0                        
2756             1                Node_02755       0.1      25       500      0.5      0                        
2964             1                Node_02963       0.1      25       500      0.5      0                        
2969             1                Node_02968       0.1      25       500      0.5      0                        
2970             1                Node_02969       0.1      25       500      0.5      0                        
2974             1                Node_02973       0.1      25       500      0.5      0                        
2975             1                Node_02974       0.1      25       500      0.5      0                        
2976             1                Node_02975       0.1      25       500      0.5      0                        
2977             1                Node_02976       0.1      25       500      0.5      0                        
2978             1                Node_02977       0.1      25       500      0.5      0                        
2979             1                Node_02978       0.1      25       500      0.5      0                        
2980             1                Node_02979       0.1      25       500      0.5      0                        
2981             1                Node_02980       0.1      25       500      0.5      0                        
2982             1                Node_02981       0.1      25       500      0.5      0                        
2984             1                Node_02983       0.1      25       500      0.5      0                        
2985             1                Node_02984       0.1      25       500      0.5      0                        
3925             1                Node_03924       0.1      25       500      0.5      0                        
3926             1                Node_03925       0.1      25       500      0.5      0                        
3927             1                Node_03926       0.1      25       500      0.5      0                        
3928             1                Node_03927       0.1      25       500      0.5      0                        
3929             1                Node_03928       0.1      25       500      0.5      0                        
3930             1                Node_03929       0.1      25       500      0.5      0                        
3931             1                Node_03930       0.1      25       500      0.5      0                        
3932             1                Node_03931       0.1      25       500      0.5      0                        
3933             1                Node_03932       0.1      25       500      0.5      0                        
3934             1                Node_03933       0.1      25       500      0.5      0                        
3935             1                Node_03934       0.1      25       500      0.5      0                        
3936             1                Node_03935       0.1      25       500      0.5      0                        
3937             1                Node_03936       0.1      25       500      0.5      0                        
3938             1                Node_03937       0.1      25       500      0.5      0                        
3939             1                Node_03938       0.1      25       500      0.5      0                        
3940             1                Node_03939       0.1      25       500      0.5      0                        
3941             1                Node_03940       0.1      25       500      0.5      0                        
3942             1                Node_03941       0.1      25       500      0.5      0                        
3943             1                Node_03942       0.1      25       500      0.5      0                        
3944             1                Node_03943       0.1      25       500      0.5      0                        
3945             1                Node_03944       0.1      25       500      0.5      0                        
3946             1                Node_03945       0.1      25       500      0.5      0                        
3947             1                Node_03946       0.1      25       500      0.5      0                        
3948             1                Node_03947       0.1      25       500      0.5      0                        
3949             1                Node_03948       0.1      25       500      0.5      0                        
3950             1                Node_03949       0.1      25       500      0.5      0                        
3951             1                Node_03950       0.1      25       500      0.5      0                        
3952             1                Node_03951       0.1      25       500      0.5      0                        
3953             1                Node_03952       0.1      25       500      0.5      0                        
3954             1                Node_03953       0.1      25       500      0.5      0                        
3955             1                Node_03954       0.1      25       500      0.5      0                        
3956             1                Node_03955       0.1      25       500      0.5      0                        
4032             1                Node_04031       0.1      25       500      0.5      0                        
4033             1                Node_04032       0.1      25       500      0.5      0                        
4041             1                Node_04040       0.1      25       500      0.5      0                        
4051             1                Node_04050       0.1      25       500      0.5      0                        
4055             1                Node_04054       0.1      25       500      0.5      0                        
4056             1                Node_04055       0.1      25       500      0.5      0                        
4058             1                Node_04057       0.1      25       500      0.5      0                        
4385             1                Node_04384       0.1      25       500      0.5      0                        
4386             1                Node_04385       0.1      25       500      0.5      0                        
4387             1                Node_04386       0.1      25       500      0.5      0                        
4388             1                Node_04387       0.1      25       500      0.5      0                        
4389             1                Node_04388       0.1      25       500      0.5      0                        
4390             1                Node_04389       0.1      25       500      0.5      0                        
4391             1                Node_04390       0.1      25       500      0.5      0                        
4392             1                Node_04391       0.1      25       500      0.5      0                        
4393             1                Node_04392       0.1      25       500      0.5      0                        
4394             1                Node_04393       0.1      25       500      0.5      0                        
4395             1                Node_04394       0.1      25       500      0.5      0                        
4396             1                Node_04395       0.1      25       500      0.5      0                        
4397             1                Node_04396       0.1      25       500      0.5      0                        
4398             1                Node_04397       0.1      25       500      0.5      0                        
4429             1                Node_04428       0.1      25       500      0.5      0                        
4430             1                Node_04429       0.1      25       500      0.5      0                        
4431             1                Node_04430       0.1      25       500      0.5      0                        
4432             1                Node_04431       0.1      25       500      0.5      0                        
4433             1                Node_04432       0.1      25       500      0.5      0                        
4434             1                Node_04433       0.1      25       500      0.5      0                        
4435             1                Node_04434       0.1      25       500      0.5      0                        
4436             1                Node_04435       0.1      25       500      0.5      0                        
4437             1                Node_04436       0.1      25       500      0.5      0                        
4438             1                Node_04437       0.1      25       500      0.5      0                        
4439             1                Node_04438       0.1      25       500      0.5      0                        
4440             1                Node_04439       0.1      25       500      0.5      0                        
4441             1                Node_04440       0.1      25       500      0.5      0                        
4442             1                Node_04441       0.1      25       500      0.5      0                        
4443             1                Node_04442       0.1      25       500      0.5      0                        
4444             1                Node_04443       0.1      25       500      0.5      0                        
4445             1                Node_04444       0.1      25       500      0.5      0                        
4446             1                Node_04445       0.1      25       500      0.5      0                        
4447             1                Node_04446       0.1      25       500      0.5      0                        
4448             1                Node_04447       0.1      25       500      0.5      0                        
4449             1                Node_04448       0.1      25       500      0.5      0                        
4450             1                Node_04449       0.1      25       500      0.5      0                        
4451             1                Node_04450       0.1      25       500      0.5      0                        
4452             1                Node_04451       0.1      25       500      0.5      0                        
4453             1                Node_04452       0.1      25       500      0.5      0                        
4454             1                Node_04453       0.1      25       500      0.5      0                        
4462             1                Node_04461       0.1      25       500      0.5      0                        
4463             1                Node_04462       0.1      25       500      0.5      0                        
4563             1                Node_04562       0.1      25       500      0.5      0                        
4564             1                Node_04563       0.1      25       500      0.5      0                        
4565             1                Node_04564       0.1      25       500      0.5      0                        
4566             1                Node_04565       0.1      25       500      0.5      0                        
4567             1                Node_04566       0.1      25       500      0.5      0                        
4568             1                Node_04567       0.1      25       500      0.5      0                        
4569             1                Node_04568       0.1      25       500      0.5      0                        
4570             1                Node_04569       0.1      25       500      0.5      0                        
4571             1                Node_04570       0.1      25       500      0.5      0                        
4572             1                Node_04571       0.1      25       500      0.5      0                        
4573             1                Node_04572       0.1      25       500      0.5      0                        
4574             1                Node_04573       0.1      25       500      0.5      0                        
4575             1                Node_04574       0.1      25       500      0.5      0                        
4576             1                Node_04575       0.1      25       500      0.5      0                        
4577             1                Node_04576       0.1      25       500      0.5      0                        
4578             1                Node_04577       0.1      25       500      0.5      0                        
4579             1                Node_04578       0.1      25       500      0.5      0                        
4580             1                Node_04579       0.1      25       500      0.5      0                        
4581             1                Node_04580       0.1      25       500      0.5      0                        
4624             1                Node_04623       0.1      25       500      0.5      0                        
4625             1                Node_04624       0.1      25       500      0.5      0                        
4644             1                Node_04643       0.1      25       500      0.5      0                        
4645             1                Node_04644       0.1      25       500      0.5      0                        
4646             1                Node_04645       0.1      25       500      0.5      0                        
4679             1                Node_04678       0.1      25       500      0.5      0                        
4680             1                Node_04679       0.1      25       500      0.5      0                        
4681             1                Node_04680       0.1      25       500      0.5      0                        
4682             1                Node_04681       0.1      25       500      0.5      0                        
4683             1                Node_04682       0.1      25       500      0.5      0                        
4711             1                Node_04710       0.1      25       500      0.5      0                        
4712             1                Node_04711       0.1      25       500      0.5      0                        
4713             1                Node_04712       0.1      25       500      0.5      0                        
4714             1                Node_04713       0.1      25       500      0.5      0                        
4715             1                Node_04714       0.1      25       500      0.5      0                        
4716             1                Node_04715       0.1      25       500      0.5      0                        
4717             1                Node_04716       0.1      25       500      0.5      0                        
4718             1                Node_04717       0.1      25       500      0.5      0                        
4722             1                Node_04721       0.1      25       500      0.5      0                        
4760             1                Node_04759       0.1      25       500      0.5      0                        
4761             1                Node_04760       0.1      25       500      0.5      0                        
4765             1                Node_04764       0.1      25       500      0.5      0                        
4766             1                Node_04765       0.1      25       500      0.5      0                        
4767             1                Node_04766       0.1      25       500      0.5      0                        
4768             1                Node_04767       0.1      25       500      0.5      0                        
4769             1                Node_04768       0.1      25       500      0.5      0                        
4855             1                Node_04854       0.1      25       500      0.5      0                        
4856             1                Node_04855       0.1      25       500      0.5      0                        
5284             1                Node_05283       0.1      25       500      0.5      0                        
5285             1                Node_05284       0.1      25       500      0.5      0                        
5286             1                Node_05285       0.1      25       500      0.5      0                        
5287             1                Node_05286       0.1      25       500      0.5      0                        
5288             1                Node_05287       0.1      25       500      0.5      0                        
5289             1                Node_05288       0.1      25       500      0.5      0                        
5290             1                Node_05289       0.1      25       500      0.5      0                        
5291             1                Node_05290       0.1      25       500      0.5      0                        
5292             1                Node_05291       0.1      25       500      0.5      0                        
5293             1                Node_05292       0.1      25       500      0.5      0                        
5294             1                Node_05293       0.1      25       500      0.5      0                        
5295             1                Node_05294       0.1      25       500      0.5      0                        
5296             1                Node_05295       0.1      25       500      0.5      0                        
5297             1                Node_05296       0.1      25       500      0.5      0                        
5298             1                Node_05297       0.1      25       500      0.5      0                        
5299             1                Node_05298       0.1      25       500      0.5      0                        
5300             1                Node_05299       0.1      25       500      0.5      0                        
5301             1                Node_05300       0.1      25       500      0.5      0                        
5302             1                Node_05301       0.1      25       500      0.5      0                        
5303             1                Node_05302       0.1      25       500      0.5      0                        
5304             1                Node_05303       0.1      25       500      0.5      0                        
5305             1                Node_05304       0.1      25       500      0.5      0                        
5306             1                Node_05305       0.1      25       500      0.5      0                        
5307             1                Node_05306       0.1      25       500      0.5      0                        
5308             1                Node_05307       0.1      25       500      0.5      0                        
5309             1                Node_05308       0.1      25       500      0.5      0                        
5310             1                Node_05309       0.1      25       500      0.5      0                        
5311             1                Node_05310       0.1      25       500      0.5      0                        
5312             1                Node_05311       0.1      25       500      0.5      0                        
5313             1                Node_05312       0.1      25       500      0.5      0                        
5314             1                Node_05313       0.1      25       500      0.5      0                        
5315             1                Node_05314       0.1      25       500      0.5      0                        
5316             1                Node_05315       0.1      25       500      0.5      0                        
5317             1                Node_05316       0.1      25       500      0.5      0                        
5318             1                Node_05317       0.1      25       500      0.5      0                        
5319             1                Node_05318       0.1      25       500      0.5      0                        
5320             1                Node_05319       0.1      25       500      0.5      0                        
5321             1                Node_05320       0.1      25       500      0.5      0                        
5322             1                Node_05321       0.1      25       500      0.5      0                        
5323             1                Node_05322       0.1      25       500      0.5      0                        
5324             1                Node_05323       0.1      25       500      0.5      0                        
5325             1                Node_05324       0.1      25       500      0.5      0                        
5326             1                Node_05325       0.1      25       500      0.5      0                        
5327             1                Node_05326       0.1      25       500      0.5      0                        
5328             1                Node_05327       0.1      25       500      0.5      0                        
5329             1                Node_05328       0.1      25       500      0.5      0                        
5330             1                Node_05329       0.1      25       500      0.5      0                        
5333             1                Node_05332       0.1      25       500      0.5      0                        
5334             1                Node_05333       0.1      25       500      0.5      0                        
6040             1                Node_06039       0.1      25       500      0.5      0                        
6041             1                Node_06040       0.1      25       500      0.5      0                        
6162             1                Node_06161       0.1      25       500      0.5      0                        
7207             1                Node_07206       0.1      25       500      0.5      0                        
7208             1                Node_07207       0.1      25       500      0.5      0                        
7213             1                Node_07212       0.1      25       500      0.5      0                        
7214             1                Node_07213       0.1      25       500      0.5      0                        
7219             1                Node_07218       0.1      25       500      0.5      0                        
7220             1                Node_07219       0.1      25       500      0.5      0                        
7221             1                Node_07220       0.1      25       500      0.5      0                        
7225             1                Node_07224       0.1      25       500      0.5      0                        
7229             1                Node_07228       0.1      25       500      0.5      0                        